
#======================================================================
# CRYSTAL DATA
#----------------------------------------------------------------------
data_VESTA_phase_1

_chemical_name_common                  'Uio-66-pos-1; Created by Multiwfn     '
_cell_length_a                         20.878000
_cell_length_b                         20.878000
_cell_length_c                         20.878000
_cell_angle_alpha                      90.000000
_cell_angle_beta                       90.000000
_cell_angle_gamma                      90.000000
_cell_volume                           9100.530215
_symmetry_space_group_name_Hall 'P 1'
_symmetry_space_group_name_H-M  'P 1'


loop_
_space_group_symop_operation_xyz
   'x, y, z'

loop_
   _atom_site_label
   _atom_site_occupancy
   _atom_site_fract_x
   _atom_site_fract_y
   _atom_site_fract_z
   _atom_site_charge
   _atom_site_type_symbol
   H1         1.0     0.493401     0.280080     0.365390     0.114497 H
   H2         1.0     0.493401     0.365390     0.280080     0.114496 H
   H3         1.0     0.493401     0.134574     0.219882     0.114403 H
   H4         1.0     0.493401     0.219882     0.134574     0.114402 H
   H5         1.0     0.594343     0.094308     0.405687     0.425411 H
   H6         1.0     0.405687     0.094308     0.594343     0.425409 H
   H7         1.0     0.365390     0.493401     0.280080     0.114496 H
   H8         1.0     0.280080     0.493401     0.365390     0.114496 H
   H9         1.0     0.219882     0.493401     0.134574     0.114403 H
   H10        1.0     0.134574     0.493401     0.219882     0.114401 H
   H11        1.0     0.634553     0.506453     0.280126     0.114572 H
   H12        1.0     0.719877     0.506439     0.365418     0.114359 H
   H13        1.0     0.780036     0.506453     0.134579     0.114250 H
   H14        1.0     0.865367     0.506438     0.219861     0.114079 H
   H15        1.0     0.506440     0.719877     0.365418     0.114366 H
   H16        1.0     0.506452     0.634553     0.280126     0.114551 H
   H17        1.0     0.506439     0.865367     0.219861     0.114097 H
   H18        1.0     0.506451     0.780036     0.134579     0.114224 H
   H19        1.0     0.405648     0.905683     0.405648     0.424907 H
   H20        1.0     0.594344     0.905720     0.594344     0.425336 H
   H21        1.0     0.506452     0.280126     0.634553     0.114553 H
   H22        1.0     0.506440     0.365418     0.719877     0.114365 H
   H23        1.0     0.506451     0.134579     0.780036     0.114225 H
   H24        1.0     0.506439     0.219861     0.865367     0.114096 H
   H25        1.0     0.634535     0.493401     0.719838     0.114500 H
   H26        1.0     0.719838     0.493401     0.634535     0.114500 H
   H27        1.0     0.780044     0.493401     0.865361     0.114653 H
   H28        1.0     0.865361     0.493401     0.780044     0.114646 H
   H29        1.0     0.365418     0.506440     0.719877     0.114365 H
   H30        1.0     0.280126     0.506452     0.634553     0.114553 H
   H31        1.0     0.219861     0.506439     0.865367     0.114096 H
   H32        1.0     0.134579     0.506451     0.780036     0.114224 H
   H33        1.0     0.493401     0.719838     0.634535     0.114502 H
   H34        1.0     0.493401     0.634535     0.719838     0.114500 H
   H35        1.0     0.493401     0.865361     0.780044     0.114648 H
   H36        1.0     0.493401     0.780044     0.865361     0.114647 H
   H37        1.0     0.405687     0.594343     0.094308     0.425409 H
   H38        1.0     0.594343     0.405687     0.094308     0.425411 H
   H39        1.0     0.280080     0.365390     0.493401     0.114496 H
   H40        1.0     0.365390     0.280080     0.493401     0.114495 H
   H41        1.0     0.134574     0.219882     0.493401     0.114403 H
   H42        1.0     0.219882     0.134574     0.493401     0.114402 H
   H43        1.0     0.280126     0.634553     0.506452     0.114553 H
   H44        1.0     0.365418     0.719877     0.506440     0.114363 H
   H45        1.0     0.134579     0.780036     0.506451     0.114225 H
   H46        1.0     0.219861     0.865367     0.506439     0.114095 H
   H47        1.0     0.405648     0.405648     0.905683     0.424907 H
   H48        1.0     0.594344     0.594344     0.905720     0.425336 H
   H49        1.0     0.719838     0.634535     0.493401     0.114500 H
   H50        1.0     0.634535     0.719838     0.493401     0.114499 H
   H51        1.0     0.865361     0.780044     0.493401     0.114648 H
   H52        1.0     0.780044     0.865361     0.493401     0.114652 H
   H53        1.0     0.719877     0.365418     0.506439     0.114359 H
   H54        1.0     0.634553     0.280126     0.506453     0.114571 H
   H55        1.0     0.865367     0.219861     0.506438     0.114080 H
   H56        1.0     0.780036     0.134579     0.506453     0.114249 H
   H57        1.0     0.094309     0.405687     0.594343     0.425360 H
   H58        1.0     0.094309     0.594343     0.405687     0.425360 H
   H59        1.0     0.905685     0.405649     0.405649     0.425006 H
   H60        1.0     0.905720     0.594344     0.594344     0.425333 H
   H61        1.0     0.365387     0.993447     0.780035     0.114447 H
   H62        1.0     0.280104     0.993448     0.865362     0.114460 H
   H63        1.0     0.219850     0.993447     0.634550     0.114435 H
   H64        1.0     0.134570     0.993447     0.719865     0.114550 H
   H65        1.0     0.634558     0.006647     0.780067     0.114672 H
   H66        1.0     0.719851     0.006646     0.865378     0.114576 H
   H67        1.0     0.780067     0.006647     0.634558     0.114672 H
   H68        1.0     0.865378     0.006646     0.719851     0.114576 H
   H69        1.0     0.634550     0.993447     0.219850     0.114435 H
   H70        1.0     0.719865     0.993447     0.134570     0.114550 H
   H71        1.0     0.780035     0.993447     0.365387     0.114447 H
   H72        1.0     0.865362     0.993448     0.280104     0.114460 H
   H73        1.0     0.365393     0.006647     0.219882     0.114409 H
   H74        1.0     0.280081     0.006646     0.134577     0.114305 H
   H75        1.0     0.219882     0.006647     0.365393     0.114409 H
   H76        1.0     0.134577     0.006646     0.280081     0.114305 H
   H77        1.0     0.280104     0.865362     0.993448     0.114460 H
   H78        1.0     0.365387     0.780035     0.993447     0.114446 H
   H79        1.0     0.134570     0.719865     0.993447     0.114551 H
   H80        1.0     0.219850     0.634550     0.993447     0.114434 H
   H81        1.0     0.280081     0.134577     0.006646     0.114305 H
   H82        1.0     0.365393     0.219882     0.006647     0.114407 H
   H83        1.0     0.134577     0.280081     0.006646     0.114306 H
   H84        1.0     0.219882     0.365393     0.006647     0.114407 H
   H85        1.0     0.719865     0.134570     0.993447     0.114551 H
   H86        1.0     0.634550     0.219850     0.993447     0.114434 H
   H87        1.0     0.865362     0.280104     0.993448     0.114461 H
   H88        1.0     0.780035     0.365387     0.993447     0.114446 H
   H89        1.0     0.719851     0.865378     0.006646     0.114576 H
   H90        1.0     0.634558     0.780067     0.006647     0.114671 H
   H91        1.0     0.865378     0.719851     0.006646     0.114577 H
   H92        1.0     0.780067     0.634558     0.006647     0.114671 H
   H93        1.0     0.094334     0.905698     0.094334     0.425302 H
   H94        1.0     0.094334     0.094334     0.905698     0.425302 H
   H95        1.0     0.905667     0.905667     0.905667     0.425066 H
   H96        1.0     0.905698     0.094334     0.094334     0.425303 H
   H97        1.0     0.993448     0.280104     0.865362     0.114461 H
   H98        1.0     0.993447     0.365387     0.780035     0.114443 H
   H99        1.0     0.993447     0.134570     0.719865     0.114550 H
   H100       1.0     0.993447     0.219850     0.634550     0.114430 H
   H101       1.0     0.006646     0.719851     0.865378     0.114576 H
   H102       1.0     0.006647     0.634558     0.780067     0.114670 H
   H103       1.0     0.006646     0.865378     0.719851     0.114576 H
   H104       1.0     0.006647     0.780067     0.634558     0.114670 H
   H105       1.0     0.006646     0.280081     0.134577     0.114305 H
   H106       1.0     0.006647     0.365393     0.219882     0.114396 H
   H107       1.0     0.006646     0.134577     0.280081     0.114305 H
   H108       1.0     0.006647     0.219882     0.365393     0.114396 H
   H109       1.0     0.993447     0.719865     0.134570     0.114550 H
   H110       1.0     0.993447     0.634550     0.219850     0.114430 H
   H111       1.0     0.993448     0.865362     0.280104     0.114461 H
   H112       1.0     0.993447     0.780035     0.365387     0.114443 H
   C1         1.0     0.493267     0.267614     0.314660    -0.090891 C
   C2         1.0     0.495555     0.152221     0.347746     0.643885 C
   C3         1.0     0.493550     0.202759     0.297214    -0.036219 C
   C4         1.0     0.493267     0.314660     0.267614    -0.090884 C
   C5         1.0     0.493550     0.297214     0.202759    -0.036221 C
   C6         1.0     0.495555     0.347746     0.152221     0.643886 C
   C7         1.0     0.493268     0.185304     0.232345    -0.090569 C
   C8         1.0     0.493268     0.232345     0.185304    -0.090562 C
   C9         1.0     0.314660     0.493267     0.267614    -0.090891 C
   C10        1.0     0.347746     0.495555     0.152221     0.643886 C
   C11        1.0     0.297214     0.493550     0.202759    -0.036219 C
   C12        1.0     0.267614     0.493267     0.314660    -0.090886 C
   C13        1.0     0.202759     0.493550     0.297214    -0.036221 C
   C14        1.0     0.152221     0.495555     0.347746     0.643900 C
   C15        1.0     0.232345     0.493268     0.185304    -0.090568 C
   C16        1.0     0.185304     0.493268     0.232345    -0.090564 C
   C17        1.0     0.685281     0.506650     0.267649    -0.090801 C
   C18        1.0     0.652206     0.504460     0.152238     0.643692 C
   C19        1.0     0.702730     0.506422     0.202782    -0.035575 C
   C20        1.0     0.732336     0.506646     0.314682    -0.090574 C
   C21        1.0     0.797197     0.506405     0.297219    -0.036588 C
   C22        1.0     0.847748     0.504443     0.347745     0.643544 C
   C23        1.0     0.767585     0.506651     0.185314    -0.090764 C
   C24        1.0     0.814641     0.506646     0.232348    -0.090252 C
   C25        1.0     0.506652     0.732336     0.314682    -0.090502 C
   C26        1.0     0.504445     0.847748     0.347745     0.643517 C
   C27        1.0     0.506409     0.797197     0.297219    -0.036649 C
   C28        1.0     0.506650     0.685281     0.267649    -0.090818 C
   C29        1.0     0.506421     0.702730     0.202782    -0.035591 C
   C30        1.0     0.504460     0.652206     0.152238     0.643710 C
   C31        1.0     0.506652     0.814641     0.232348    -0.090214 C
   C32        1.0     0.506650     0.767585     0.185314    -0.090757 C
   C33        1.0     0.506650     0.267649     0.685281    -0.090825 C
   C34        1.0     0.504460     0.152238     0.652206     0.643709 C
   C35        1.0     0.506421     0.202782     0.702730    -0.035589 C
   C36        1.0     0.506652     0.314682     0.732336    -0.090495 C
   C37        1.0     0.506409     0.297219     0.797197    -0.036651 C
   C38        1.0     0.504445     0.347745     0.847748     0.643517 C
   C39        1.0     0.506650     0.185314     0.767585    -0.090763 C
   C40        1.0     0.506652     0.232348     0.814641    -0.090208 C
   C41        1.0     0.685266     0.493268     0.732305    -0.090753 C
   C42        1.0     0.652204     0.495556     0.847724     0.643048 C
   C43        1.0     0.702726     0.493549     0.797174    -0.035454 C
   C44        1.0     0.732305     0.493268     0.685266    -0.090770 C
   C45        1.0     0.797174     0.493549     0.702726    -0.035342 C
   C46        1.0     0.847724     0.495556     0.652203     0.643075 C
   C47        1.0     0.767578     0.493266     0.814624    -0.091472 C
   C48        1.0     0.814624     0.493266     0.767577    -0.091541 C
   C49        1.0     0.314682     0.506652     0.732336    -0.090500 C
   C50        1.0     0.347745     0.504445     0.847748     0.643518 C
   C51        1.0     0.297219     0.506409     0.797197    -0.036651 C
   C52        1.0     0.267649     0.506650     0.685281    -0.090818 C
   C53        1.0     0.202782     0.506421     0.702730    -0.035593 C
   C54        1.0     0.152238     0.504460     0.652206     0.643707 C
   C55        1.0     0.232348     0.506652     0.814641    -0.090214 C
   C56        1.0     0.185314     0.506650     0.767585    -0.090757 C
   C57        1.0     0.493268     0.732305     0.685266    -0.090772 C
   C58        1.0     0.495556     0.847724     0.652204     0.643033 C
   C59        1.0     0.493549     0.797174     0.702726    -0.035333 C
   C60        1.0     0.493268     0.685266     0.732305    -0.090765 C
   C61        1.0     0.493549     0.702726     0.797174    -0.035335 C
   C62        1.0     0.495556     0.652204     0.847724     0.643033 C
   C63        1.0     0.493266     0.814624     0.767577    -0.091558 C
   C64        1.0     0.493266     0.767577     0.814624    -0.091552 C
   C65        1.0     0.267614     0.314660     0.493267    -0.090892 C
   C66        1.0     0.152221     0.347746     0.495555     0.643899 C
   C67        1.0     0.202759     0.297214     0.493550    -0.036219 C
   C68        1.0     0.314660     0.267614     0.493267    -0.090884 C
   C69        1.0     0.297214     0.202759     0.493550    -0.036221 C
   C70        1.0     0.347746     0.152221     0.495555     0.643887 C
   C71        1.0     0.185304     0.232345     0.493268    -0.090570 C
   C72        1.0     0.232345     0.185304     0.493268    -0.090562 C
   C73        1.0     0.267649     0.685281     0.506650    -0.090825 C
   C74        1.0     0.152238     0.652206     0.504460     0.643707 C
   C75        1.0     0.202782     0.702730     0.506421    -0.035591 C
   C76        1.0     0.314682     0.732336     0.506652    -0.090493 C
   C77        1.0     0.297219     0.797197     0.506409    -0.036653 C
   C78        1.0     0.347745     0.847748     0.504445     0.643519 C
   C79        1.0     0.185314     0.767585     0.506650    -0.090763 C
   C80        1.0     0.232348     0.814641     0.506652    -0.090208 C
   C81        1.0     0.732305     0.685266     0.493268    -0.090776 C
   C82        1.0     0.847724     0.652203     0.495556     0.643075 C
   C83        1.0     0.797174     0.702726     0.493549    -0.035340 C
   C84        1.0     0.685266     0.732305     0.493268    -0.090746 C
   C85        1.0     0.702726     0.797174     0.493549    -0.035456 C
   C86        1.0     0.652204     0.847724     0.495556     0.643049 C
   C87        1.0     0.814624     0.767577     0.493266    -0.091547 C
   C88        1.0     0.767578     0.814624     0.493266    -0.091465 C
   C89        1.0     0.732336     0.314682     0.506646    -0.090580 C
   C90        1.0     0.847748     0.347745     0.504443     0.643544 C
   C91        1.0     0.797197     0.297219     0.506405    -0.036586 C
   C92        1.0     0.685281     0.267649     0.506650    -0.090794 C
   C93        1.0     0.702730     0.202782     0.506422    -0.035578 C
   C94        1.0     0.652206     0.152238     0.504460     0.643692 C
   C95        1.0     0.814641     0.232348     0.506646    -0.090258 C
   C96        1.0     0.767585     0.185314     0.506651    -0.090758 C
   C97        1.0     0.314654     0.993318     0.767584    -0.090994 C
   C98        1.0     0.347744     0.995543     0.652206     0.643556 C
   C99        1.0     0.297197     0.993581     0.702726    -0.035573 C
   C100       1.0     0.267618     0.993318     0.814633    -0.091095 C
   C101       1.0     0.202757     0.993585     0.797193    -0.035809 C
   C102       1.0     0.152226     0.995557     0.847734     0.643506 C
   C103       1.0     0.232339     0.993319     0.685278    -0.090362 C
   C104       1.0     0.185301     0.993319     0.732329    -0.091122 C
   C105       1.0     0.685291     0.006766     0.767608    -0.091550 C
   C106       1.0     0.652213     0.004481     0.652213     0.643690 C
   C107       1.0     0.702743     0.006496     0.702743    -0.034755 C
   C108       1.0     0.732332     0.006766     0.814654    -0.090424 C
   C109       1.0     0.797196     0.006495     0.797196    -0.036585 C
   C110       1.0     0.847736     0.004472     0.847736     0.643363 C
   C111       1.0     0.767608     0.006766     0.685291    -0.091548 C
   C112       1.0     0.814654     0.006766     0.732332    -0.090423 C
   C113       1.0     0.685278     0.993319     0.232339    -0.090364 C
   C114       1.0     0.652206     0.995543     0.347744     0.643555 C
   C115       1.0     0.702726     0.993581     0.297197    -0.035572 C
   C116       1.0     0.732329     0.993319     0.185301    -0.091124 C
   C117       1.0     0.797193     0.993585     0.202757    -0.035809 C
   C118       1.0     0.847734     0.995557     0.152226     0.643521 C
   C119       1.0     0.767584     0.993318     0.314654    -0.090994 C
   C120       1.0     0.814633     0.993318     0.267618    -0.091092 C
   C121       1.0     0.314662     0.006766     0.232349    -0.090475 C
   C122       1.0     0.347747     0.004479     0.347747     0.643702 C
   C123       1.0     0.297214     0.006494     0.297214    -0.036752 C
   C124       1.0     0.267617     0.006765     0.185307    -0.090888 C
   C125       1.0     0.202758     0.006495     0.202758    -0.035266 C
   C126       1.0     0.152224     0.004479     0.152224     0.643759 C
   C127       1.0     0.232349     0.006766     0.314662    -0.090474 C
   C128       1.0     0.185307     0.006765     0.267617    -0.090886 C
   C129       1.0     0.267618     0.814633     0.993318    -0.091103 C
   C130       1.0     0.152226     0.847734     0.995557     0.643505 C
   C131       1.0     0.202757     0.797193     0.993585    -0.035807 C
   C132       1.0     0.314654     0.767584     0.993318    -0.090987 C
   C133       1.0     0.297197     0.702726     0.993581    -0.035575 C
   C134       1.0     0.347744     0.652206     0.995543     0.643557 C
   C135       1.0     0.185301     0.732329     0.993319    -0.091130 C
   C136       1.0     0.232339     0.685278     0.993319    -0.090355 C
   C137       1.0     0.267617     0.185307     0.006765    -0.090895 C
   C138       1.0     0.152224     0.152224     0.004479     0.643758 C
   C139       1.0     0.202758     0.202758     0.006495    -0.035264 C
   C140       1.0     0.314662     0.232349     0.006766    -0.090467 C
   C141       1.0     0.297214     0.297214     0.006494    -0.036755 C
   C142       1.0     0.347747     0.347747     0.004479     0.643702 C
   C143       1.0     0.185307     0.267617     0.006765    -0.090894 C
   C144       1.0     0.232349     0.314662     0.006766    -0.090466 C
   C145       1.0     0.732329     0.185301     0.993319    -0.091132 C
   C146       1.0     0.847734     0.152226     0.995557     0.643521 C
   C147       1.0     0.797193     0.202757     0.993585    -0.035807 C
   C148       1.0     0.685278     0.232339     0.993319    -0.090356 C
   C149       1.0     0.702726     0.297197     0.993581    -0.035575 C
   C150       1.0     0.652206     0.347744     0.995543     0.643556 C
   C151       1.0     0.814633     0.267618     0.993318    -0.091099 C
   C152       1.0     0.767584     0.314654     0.993318    -0.090986 C
   C153       1.0     0.732332     0.814654     0.006766    -0.090430 C
   C154       1.0     0.847736     0.847736     0.004472     0.643363 C
   C155       1.0     0.797196     0.797196     0.006495    -0.036583 C
   C156       1.0     0.685291     0.767608     0.006766    -0.091543 C
   C157       1.0     0.702743     0.702743     0.006496    -0.034757 C
   C158       1.0     0.652213     0.652213     0.004481     0.643691 C
   C159       1.0     0.814654     0.732332     0.006766    -0.090429 C
   C160       1.0     0.767608     0.685291     0.006766    -0.091542 C
   C161       1.0     0.993318     0.267618     0.814633    -0.091104 C
   C162       1.0     0.995557     0.152226     0.847734     0.643506 C
   C163       1.0     0.993585     0.202757     0.797193    -0.035805 C
   C164       1.0     0.993318     0.314654     0.767584    -0.090957 C
   C165       1.0     0.993581     0.297197     0.702726    -0.035691 C
   C166       1.0     0.995543     0.347744     0.652205     0.643680 C
   C167       1.0     0.993319     0.185301     0.732329    -0.091134 C
   C168       1.0     0.993319     0.232339     0.685278    -0.090325 C
   C169       1.0     0.006766     0.732332     0.814654    -0.090429 C
   C170       1.0     0.004472     0.847736     0.847736     0.643363 C
   C171       1.0     0.006495     0.797196     0.797196    -0.036584 C
   C172       1.0     0.006766     0.685291     0.767608    -0.091544 C
   C173       1.0     0.006496     0.702743     0.702743    -0.034755 C
   C174       1.0     0.004481     0.652213     0.652213     0.643688 C
   C175       1.0     0.006766     0.814654     0.732332    -0.090428 C
   C176       1.0     0.006766     0.767608     0.685291    -0.091543 C
   C177       1.0     0.006765     0.267617     0.185307    -0.090906 C
   C178       1.0     0.004479     0.152224     0.152224     0.643758 C
   C179       1.0     0.006495     0.202758     0.202758    -0.035261 C
   C180       1.0     0.006766     0.314662     0.232349    -0.090403 C
   C181       1.0     0.006494     0.297213     0.297213    -0.036749 C
   C182       1.0     0.004480     0.347747     0.347747     0.643533 C
   C183       1.0     0.006765     0.185307     0.267617    -0.090905 C
   C184       1.0     0.006766     0.232349     0.314662    -0.090402 C
   C185       1.0     0.993319     0.732329     0.185301    -0.091135 C
   C186       1.0     0.995557     0.847734     0.152226     0.643506 C
   C187       1.0     0.993585     0.797193     0.202757    -0.035805 C
   C188       1.0     0.993319     0.685278     0.232339    -0.090326 C
   C189       1.0     0.993581     0.702726     0.297197    -0.035691 C
   C190       1.0     0.995543     0.652205     0.347744     0.643680 C
   C191       1.0     0.993318     0.814633     0.267618    -0.091103 C
   C192       1.0     0.993318     0.767584     0.314654    -0.090955 C
   O1         1.0     0.496937     0.170905     0.406057    -0.622338 O
   O2         1.0     0.496937     0.406057     0.170905    -0.622339 O
   O3         1.0     0.496947     0.093907     0.329075    -0.622836 O
   O4         1.0     0.496947     0.329075     0.093907    -0.622836 O
   O5         1.0     0.567489     0.067471     0.432514    -1.069819 O
   O6         1.0     0.450264     0.049717     0.450264    -1.149022 O
   O7         1.0     0.432514     0.067471     0.567489    -1.069821 O
   O8         1.0     0.549715     0.049719     0.549715    -1.148517 O
   O9         1.0     0.406057     0.496937     0.170905    -0.622338 O
   O10        1.0     0.170905     0.496937     0.406057    -0.622334 O
   O11        1.0     0.329075     0.496947     0.093907    -0.622836 O
   O12        1.0     0.093907     0.496946     0.329075    -0.622822 O
   O13        1.0     0.593892     0.503082     0.170914    -0.622772 O
   O14        1.0     0.829073     0.503074     0.406071    -0.622491 O
   O15        1.0     0.670886     0.503083     0.093926    -0.622494 O
   O16        1.0     0.906050     0.503069     0.329074    -0.622031 O
   O17        1.0     0.503082     0.170914     0.593892    -0.622774 O
   O18        1.0     0.503082     0.593892     0.170914    -0.622774 O
   O19        1.0     0.406057     0.170905     0.496937    -0.622338 O
   O20        1.0     0.593892     0.170914     0.503082    -0.622772 O
   O21        1.0     0.406063     0.003081     0.329077    -0.622352 O
   O22        1.0     0.593892     0.996922     0.329077    -0.622626 O
   O23        1.0     0.503080     0.906051     0.329075    -0.622030 O
   O24        1.0     0.432502     0.932501     0.432502    -1.069753 O
   O25        1.0     0.432514     0.567489     0.067471    -1.069821 O
   O26        1.0     0.567489     0.432514     0.067471    -1.069820 O
   O27        1.0     0.549714     0.950260     0.450266    -1.149226 O
   O28        1.0     0.450264     0.450264     0.049717    -1.149022 O
   O29        1.0     0.549715     0.549715     0.049719    -1.148517 O
   O30        1.0     0.503084     0.829073     0.406072    -0.622501 O
   O31        1.0     0.503084     0.670886     0.093926    -0.622501 O
   O32        1.0     0.567482     0.932515     0.567482    -1.069841 O
   O33        1.0     0.450266     0.950260     0.549714    -1.149225 O
   O34        1.0     0.496947     0.829059     0.593883    -0.622334 O
   O35        1.0     0.593883     0.829059     0.496947    -0.622334 O
   O36        1.0     0.406072     0.829073     0.503084    -0.622502 O
   O37        1.0     0.503084     0.406072     0.829073    -0.622501 O
   O38        1.0     0.503084     0.093926     0.670886    -0.622501 O
   O39        1.0     0.503080     0.329075     0.906051    -0.622030 O
   O40        1.0     0.593883     0.496947     0.829059    -0.622334 O
   O41        1.0     0.829059     0.496945     0.593883    -0.622376 O
   O42        1.0     0.670893     0.496942     0.906031    -0.622145 O
   O43        1.0     0.906031     0.496942     0.670893    -0.622127 O
   O44        1.0     0.406072     0.503084     0.829073    -0.622502 O
   O45        1.0     0.170914     0.503082     0.593892    -0.622784 O
   O46        1.0     0.329075     0.503080     0.906051    -0.622030 O
   O47        1.0     0.093926     0.503084     0.670886    -0.622489 O
   O48        1.0     0.496947     0.593883     0.829059    -0.622334 O
   O49        1.0     0.593903     0.003080     0.670891    -0.622745 O
   O50        1.0     0.406058     0.996916     0.670897    -0.622456 O
   O51        1.0     0.496942     0.906031     0.670893    -0.622141 O
   O52        1.0     0.567482     0.567482     0.932515    -1.069841 O
   O53        1.0     0.432502     0.432502     0.932501    -1.069753 O
   O54        1.0     0.549714     0.450266     0.950260    -1.149226 O
   O55        1.0     0.450266     0.549714     0.950260    -1.149225 O
   O56        1.0     0.496942     0.670893     0.906031    -0.622141 O
   O57        1.0     0.170905     0.406057     0.496937    -0.622334 O
   O58        1.0     0.093907     0.329075     0.496946    -0.622821 O
   O59        1.0     0.329075     0.093907     0.496947    -0.622837 O
   O60        1.0     0.170914     0.593892     0.503082    -0.622784 O
   O61        1.0     0.093926     0.670886     0.503084    -0.622489 O
   O62        1.0     0.329075     0.906051     0.503080    -0.622030 O
   O63        1.0     0.329077     0.406063     0.003081    -0.622353 O
   O64        1.0     0.329077     0.593892     0.996922    -0.622626 O
   O65        1.0     0.067470     0.432514     0.567489    -1.069800 O
   O66        1.0     0.067470     0.567489     0.432514    -1.069800 O
   O67        1.0     0.049717     0.450264     0.450264    -1.149056 O
   O68        1.0     0.049719     0.549715     0.549715    -1.148517 O
   O69        1.0     0.829059     0.593883     0.496945    -0.622376 O
   O70        1.0     0.906031     0.670893     0.496942    -0.622127 O
   O71        1.0     0.670893     0.906031     0.496942    -0.622145 O
   O72        1.0     0.829073     0.406071     0.503074    -0.622491 O
   O73        1.0     0.906050     0.329074     0.503069    -0.622031 O
   O74        1.0     0.670886     0.093926     0.503083    -0.622494 O
   O75        1.0     0.670891     0.593903     0.003080    -0.622748 O
   O76        1.0     0.670897     0.406058     0.996916    -0.622451 O
   O77        1.0     0.932515     0.567482     0.567482    -1.069801 O
   O78        1.0     0.932505     0.432502     0.432502    -1.069863 O
   O79        1.0     0.950259     0.549714     0.450265    -1.149219 O
   O80        1.0     0.950259     0.450265     0.549714    -1.149219 O
   O81        1.0     0.003082     0.329077     0.406062    -0.622280 O
   O82        1.0     0.996920     0.329077     0.593892    -0.622657 O
   O83        1.0     0.003080     0.670891     0.593903    -0.622746 O
   O84        1.0     0.996916     0.670897     0.406058    -0.622483 O
   O85        1.0     0.003082     0.406062     0.329077    -0.622280 O
   O86        1.0     0.996920     0.593892     0.329077    -0.622657 O
   O87        1.0     0.003080     0.593903     0.670891    -0.622746 O
   O88        1.0     0.996916     0.406058     0.670897    -0.622483 O
   O89        1.0     0.406063     0.329077     0.003081    -0.622353 O
   O90        1.0     0.593892     0.329077     0.996922    -0.622626 O
   O91        1.0     0.593903     0.670891     0.003080    -0.622745 O
   O92        1.0     0.406058     0.670897     0.996916    -0.622456 O
   O93        1.0     0.329077     0.003081     0.406063    -0.622353 O
   O94        1.0     0.329077     0.996922     0.593892    -0.622626 O
   O95        1.0     0.670891     0.003080     0.593903    -0.622747 O
   O96        1.0     0.670897     0.996916     0.406058    -0.622451 O
   O97        1.0     0.170916     0.996940     0.906048    -0.622242 O
   O98        1.0     0.093909     0.996924     0.829072    -0.622720 O
   O99        1.0     0.829063     0.003072     0.906054    -0.622275 O
   O100       1.0     0.906054     0.003072     0.829063    -0.622276 O
   O101       1.0     0.829072     0.996924     0.093909    -0.622723 O
   O102       1.0     0.906048     0.996940     0.170916    -0.622253 O
   O103       1.0     0.170906     0.003079     0.093912    -0.622719 O
   O104       1.0     0.093912     0.003079     0.170906    -0.622719 O
   O105       1.0     0.170916     0.906048     0.996940    -0.622242 O
   O106       1.0     0.093909     0.829072     0.996924    -0.622720 O
   O107       1.0     0.170906     0.093912     0.003079    -0.622719 O
   O108       1.0     0.093912     0.170906     0.003079    -0.622719 O
   O109       1.0     0.067475     0.932507     0.067475    -1.069578 O
   O110       1.0     0.067475     0.067475     0.932507    -1.069578 O
   O111       1.0     0.049719     0.950267     0.950267    -1.149067 O
   O112       1.0     0.049708     0.049708     0.049708    -1.148497 O
   O113       1.0     0.829072     0.093909     0.996924    -0.622723 O
   O114       1.0     0.906048     0.170916     0.996940    -0.622253 O
   O115       1.0     0.829063     0.906054     0.003072    -0.622275 O
   O116       1.0     0.906054     0.829063     0.003072    -0.622276 O
   O117       1.0     0.932507     0.067475     0.067475    -1.069580 O
   O118       1.0     0.932505     0.932505     0.932505    -1.069835 O
   O119       1.0     0.950267     0.049719     0.950267    -1.149066 O
   O120       1.0     0.950267     0.950267     0.049719    -1.149066 O
   O121       1.0     0.003072     0.829063     0.906054    -0.622275 O
   O122       1.0     0.996924     0.829072     0.093909    -0.622720 O
   O123       1.0     0.003079     0.170906     0.093912    -0.622721 O
   O124       1.0     0.996940     0.170916     0.906049    -0.622247 O
   O125       1.0     0.003072     0.906054     0.829063    -0.622275 O
   O126       1.0     0.996924     0.093909     0.829072    -0.622720 O
   O127       1.0     0.003079     0.093912     0.170906    -0.622721 O
   O128       1.0     0.996940     0.906049     0.170916    -0.622247 O
   Zr1        1.0     0.499988     0.119765     0.499988     2.375316 Zr
   Zr2        1.0     0.499988     0.499988     0.119765     2.375316 Zr
   Zr3        1.0     0.499988    -0.000014     0.380217     2.375806 Zr
   Zr4        1.0     0.119766     0.499988     0.499988     2.375297 Zr
   Zr5        1.0     0.880206     0.499989     0.499989     2.376046 Zr
   Zr6        1.0     0.499988     0.380217    -0.000014     2.375806 Zr
   Zr7        1.0     0.499989    -0.000013     0.619759     2.375365 Zr
   Zr8        1.0    -0.000014     0.499987     0.380216     2.375814 Zr
   Zr9        1.0     0.619759     0.499989    -0.000013     2.375367 Zr
   Zr10       1.0     0.380217     0.499988    -0.000014     2.375804 Zr
   Zr11       1.0     0.619759    -0.000013     0.499989     2.375367 Zr
   Zr12       1.0     0.380217    -0.000014     0.499988     2.375804 Zr
   Zr13       1.0     0.499990     0.880205     0.499990     2.376176 Zr
   Zr14       1.0     0.499989     0.619759    -0.000013     2.375365 Zr
   Zr15       1.0     0.499990     0.499990     0.880205     2.376176 Zr
   Zr16       1.0    -0.000013     0.499989     0.619759     2.375351 Zr
   Zr17       1.0    -0.000013     0.619759     0.499989     2.375351 Zr
   Zr18       1.0    -0.000014     0.380216     0.499987     2.375814 Zr
   Zr19       1.0     0.119768    -0.000012    -0.000012     2.375271 Zr
   Zr20       1.0     0.880208    -0.000010    -0.000010     2.375808 Zr
   Zr21       1.0    -0.000010    -0.000010     0.880208     2.375809 Zr
   Zr22       1.0    -0.000012    -0.000012     0.119768     2.375269 Zr
   Zr23       1.0    -0.000012     0.119768    -0.000012     2.375269 Zr
   Zr24       1.0    -0.000010     0.880208    -0.000010     2.375808 Zr
