
#======================================================================
# CRYSTAL DATA
#----------------------------------------------------------------------
data_VESTA_phase_1

_chemical_name_common                  'Cu-MOF-NH2; Created by Multiwfn       '
_cell_length_a                         18.785999
_cell_length_b                         18.815001
_cell_length_c                         24.170000
_cell_angle_alpha                      90.000000
_cell_angle_beta                       90.000000
_cell_angle_gamma                      120.000000
_cell_volume                           7398.536492
_symmetry_space_group_name_Hall 'P 1'
_symmetry_space_group_name_H-M  'P 1'

loop_
_space_group_symop_operation_xyz
   'x, y, z'

loop_
   _atom_site_label
   _atom_site_occupancy
   _atom_site_fract_x
   _atom_site_fract_y
   _atom_site_fract_z
   _atom_site_charge
   _atom_site_type_symbol
   H1         1.0     0.371862     0.300547     0.361360     0.127137 H
   H2         1.0     0.798723     0.897505     0.839223     0.103514 H
   H3         1.0     0.699063     0.069438     0.361212     0.128082 H
   H4         1.0     0.928455     0.628946     0.359631     0.127461 H
   H5         1.0     0.761508     0.522700     0.496781     0.134284 H
   H6         1.0     0.628563     0.700491     0.859668     0.126383 H
   H7         1.0     0.521840     0.760217     0.996981     0.134881 H
   H8         1.0     0.300156     0.930161     0.861031     0.127650 H
   H9         1.0     0.898134     0.098968     0.338994     0.103422 H
   H10        1.0     0.070299     0.370934     0.860785     0.126976 H
   H11        1.0     0.201387     0.105189     0.160950     0.102757 H
   H12        1.0     0.123781     0.066832     0.250110     0.096320 H
   H13        1.0     0.300312     0.372751     0.640590     0.126860 H
   H14        1.0     0.238846     0.477627     0.503057     0.134405 H
   H15        1.0     0.902280     0.798263     0.160540     0.104291 H
   H16        1.0     0.942573     0.876081     0.249587     0.095586 H
   H17        1.0     0.070473     0.698312     0.638958     0.128603 H
   H18        1.0     0.936955     0.060318     0.249731     0.095916 H
   H19        1.0     0.628092     0.929376     0.638956     0.128555 H
   H20        1.0     0.876330     0.935883     0.750072     0.096310 H
   H21        1.0     0.698480     0.627024     0.139263     0.128275 H
   H22        1.0     0.096276     0.201492     0.660716     0.103251 H
   H23        1.0     0.927516     0.300379     0.141567     0.129164 H
   H24        1.0     0.761868     0.240670     0.003680     0.133706 H
   H25        1.0     0.098976     0.897615     0.660347     0.103322 H
   H26        1.0     0.372065     0.071479     0.140962     0.128325 H
   H27        1.0     0.478217     0.237067     0.003258     0.135972 H
   H28        1.0     0.628526     0.700160     0.640371     0.127080 H
   H29        1.0     0.522197     0.760263     0.503010     0.134518 H
   H30        1.0     0.299797     0.928193     0.639973     0.125468 H
   H31        1.0     0.239587     0.761522     0.502836     0.134277 H
   H32        1.0     0.897793     0.098967     0.160619     0.104308 H
   H33        1.0     0.069793     0.371207     0.639131     0.127399 H
   H34        1.0     0.371733     0.300736     0.138708     0.125733 H
   H35        1.0     0.798787     0.897487     0.660892     0.103114 H
   H36        1.0     0.698832     0.069985     0.138621     0.126927 H
   H37        1.0     0.061081     0.937526     0.749407     0.097178 H
   H38        1.0     0.929052     0.628655     0.140406     0.126990 H
   H39        1.0     0.762573     0.522421     0.002973     0.135074 H
   H40        1.0     0.698291     0.628183     0.360570     0.129037 H
   H41        1.0     0.096857     0.201372     0.839067     0.102464 H
   H42        1.0     0.056469     0.123922     0.749864     0.095475 H
   H43        1.0     0.927704     0.299890     0.358551     0.128451 H
   H44        1.0     0.761647     0.239946     0.496213     0.133786 H
   H45        1.0     0.101435     0.900509     0.838678     0.103440 H
   H46        1.0     0.372259     0.071345     0.359655     0.128699 H
   H47        1.0     0.478367     0.237465     0.497131     0.135539 H
   H48        1.0     0.201307     0.104778     0.339280     0.103361 H
   H49        1.0     0.300832     0.372492     0.859242     0.128290 H
   H50        1.0     0.239231     0.477145     0.996884     0.133686 H
   H51        1.0     0.901655     0.798928     0.338887     0.102418 H
   H52        1.0     0.071971     0.699240     0.858459     0.129189 H
   H53        1.0     0.238186     0.759859     0.996089     0.134142 H
   H54        1.0     0.627405     0.929351     0.860985     0.128590 H
   H55        1.0     0.251569     0.773783     0.714533     0.291711 H
   H56        1.0     0.251948     0.774574     0.785188     0.291528 H
   H57        1.0     0.230402     0.478169     0.714575     0.293715 H
   H58        1.0     0.230119     0.478136     0.785301     0.293609 H
   H59        1.0     0.521644     0.755772     0.714667     0.293776 H
   H60        1.0     0.521612     0.756210     0.785377     0.293532 H
   H61        1.0     0.478533     0.244458     0.214703     0.294370 H
   H62        1.0     0.478702     0.244485     0.285435     0.293421 H
   H63        1.0     0.770141     0.522083     0.214777     0.292696 H
   H64        1.0     0.770294     0.522221     0.285418     0.293173 H
   H65        1.0     0.747721     0.225421     0.214711     0.292825 H
   H66        1.0     0.747568     0.225110     0.285386     0.292989 H
   C1         1.0     0.427672     0.277376     0.431841    -0.023673 C
   C2         1.0     0.452468     0.358761     0.458403     0.587256 C
   C3         1.0     0.386847     0.257261     0.380667    -0.135164 C
   C4         1.0     0.722263     0.148960     0.431405    -0.021950 C
   C5         1.0     0.641140     0.092319     0.458127     0.578650 C
   C6         1.0     0.742249     0.128006     0.380311    -0.136439 C
   C7         1.0     0.850856     0.573421     0.430748    -0.020148 C
   C8         1.0     0.907842     0.548783     0.456702     0.582785 C
   C9         1.0     0.870479     0.613944     0.379565    -0.137815 C
   C10        1.0     0.572922     0.722048     0.930937    -0.015699 C
   C11        1.0     0.548709     0.640370     0.956849     0.578718 C
   C12        1.0     0.613484     0.743269     0.879687    -0.135995 C
   C13        1.0     0.277239     0.850798     0.931262    -0.021122 C
   C14        1.0     0.358407     0.907552     0.957993     0.580345 C
   C15        1.0     0.257102     0.871542     0.880141    -0.136038 C
   C16        1.0     0.149060     0.426465     0.931547    -0.018699 C
   C17        1.0     0.092318     0.450853     0.958320     0.578060 C
   C18        1.0     0.128613     0.386076     0.880265    -0.135291 C
   C19        1.0     0.277746     0.427191     0.569130    -0.017153 C
   C20        1.0     0.359353     0.451294     0.543131     0.577654 C
   C21        1.0     0.257026     0.387048     0.620430    -0.122093 C
   C22        1.0     0.149165     0.721856     0.568179    -0.021150 C
   C23        1.0     0.092415     0.640598     0.541588     0.583705 C
   C24        1.0     0.128552     0.741739     0.619410    -0.125457 C
   C25        1.0     0.573056     0.850668     0.568299    -0.022027 C
   C26        1.0     0.548275     0.907185     0.541845     0.579242 C
   C27        1.0     0.613428     0.871288     0.619540    -0.124367 C
   C28        1.0     0.722444     0.572424     0.068435    -0.023103 C
   C29        1.0     0.641163     0.547715     0.041696     0.582283 C
   C30        1.0     0.742112     0.612694     0.119716    -0.122805 C
   C31        1.0     0.850557     0.278811     0.069954    -0.019467 C
   C32        1.0     0.907771     0.360461     0.044019     0.578364 C
   C33        1.0     0.870058     0.257560     0.121054    -0.125394 C
   C34        1.0     0.427078     0.148418     0.069475    -0.020211 C
   C35        1.0     0.451145     0.091141     0.043471     0.579224 C
   C36        1.0     0.386808     0.129095     0.120723    -0.123527 C
   C37        1.0     0.573075     0.721985     0.569097    -0.017617 C
   C38        1.0     0.548494     0.640239     0.543276     0.579635 C
   C39        1.0     0.613591     0.743059     0.620365    -0.135794 C
   C40        1.0     0.277973     0.850753     0.568816    -0.018573 C
   C41        1.0     0.359623     0.908075     0.542870     0.581756 C
   C42        1.0     0.256932     0.870257     0.620041    -0.135322 C
   C43        1.0     0.148719     0.427104     0.568491    -0.020359 C
   C44        1.0     0.092051     0.451683     0.541774     0.581465 C
   C45        1.0     0.128139     0.386433     0.619670    -0.138061 C
   C46        1.0     0.427614     0.277339     0.068382    -0.021846 C
   C47        1.0     0.452510     0.358672     0.041699     0.584155 C
   C48        1.0     0.386775     0.257397     0.119554    -0.132377 C
   C49        1.0     0.721994     0.149626     0.068534    -0.021785 C
   C50        1.0     0.640768     0.093000     0.041755     0.584188 C
   C51        1.0     0.742028     0.128568     0.119564    -0.136136 C
   C52        1.0     0.851717     0.573183     0.069109    -0.020371 C
   C53        1.0     0.909248     0.549329     0.043047     0.580455 C
   C54        1.0     0.871072     0.613506     0.120379    -0.135498 C
   C55        1.0     0.721984     0.573353     0.431445    -0.021701 C
   C56        1.0     0.640657     0.548514     0.458085     0.575914 C
   C57        1.0     0.741777     0.613662     0.380166    -0.125435 C
   C58        1.0     0.850755     0.278216     0.430089    -0.018709 C
   C59        1.0     0.907869     0.359999     0.455867     0.577814 C
   C60        1.0     0.870232     0.257010     0.378979    -0.124839 C
   C61        1.0     0.427495     0.148598     0.430966    -0.018879 C
   C62        1.0     0.451938     0.091541     0.456966     0.577294 C
   C63        1.0     0.387023     0.129024     0.379771    -0.127378 C
   C64        1.0     0.278263     0.426929     0.930750    -0.019885 C
   C65        1.0     0.359897     0.451257     0.956775     0.580399 C
   C66        1.0     0.257581     0.386825     0.879430    -0.123749 C
   C67        1.0     0.149140     0.721211     0.929974    -0.018434 C
   C68        1.0     0.092294     0.639432     0.955938     0.576555 C
   C69        1.0     0.129445     0.742225     0.878852    -0.125379 C
   C70        1.0     0.572215     0.850452     0.931597    -0.020736 C
   C71        1.0     0.547208     0.906769     0.958206     0.583250 C
   C72        1.0     0.612807     0.871273     0.880418    -0.126010 C
   C73        1.0     0.447068     0.222437     0.457334    -0.098982 C
   C74        1.0     0.320091     0.160382     0.300727    -0.054146 C
   C75        1.0     0.365236     0.182570     0.354540     0.079799 C
   C76        1.0     0.234218     0.119943     0.299897    -0.121238 C
   C77        1.0     0.776950     0.223697     0.456538    -0.098425 C
   C78        1.0     0.838957     0.158454     0.300375    -0.049635 C
   C79        1.0     0.816784     0.181360     0.354073     0.078163 C
   C80        1.0     0.881739     0.115412     0.299571    -0.124233 C
   C81        1.0     0.776933     0.553979     0.457010    -0.096827 C
   C82        1.0     0.839151     0.680264     0.300402    -0.052431 C
   C83        1.0     0.816690     0.635385     0.354212     0.079842 C
   C84        1.0     0.884235     0.766005     0.299517    -0.122239 C
   C85        1.0     0.553104     0.776213     0.957182    -0.102352 C
   C86        1.0     0.679966     0.841609     0.800597    -0.046779 C
   C87        1.0     0.634797     0.818444     0.854367     0.077915 C
   C88        1.0     0.765848     0.882430     0.799817    -0.123438 C
   C89        1.0     0.222804     0.775985     0.956416    -0.098416 C
   C90        1.0     0.160082     0.840418     0.800133    -0.049574 C
   C91        1.0     0.182636     0.817938     0.853891     0.076977 C
   C92        1.0     0.117203     0.883375     0.799285    -0.123067 C
   C93        1.0     0.223530     0.446041     0.957058    -0.098799 C
   C94        1.0     0.159226     0.319916     0.800414    -0.050617 C
   C95        1.0     0.182126     0.364924     0.854175     0.076656 C
   C96        1.0     0.114204     0.234185     0.799647    -0.121925 C
   C97        1.0     0.223123     0.446515     0.542892    -0.101080 C
   C98        1.0     0.158840     0.320000     0.699411    -0.048572 C
   C99        1.0     0.181596     0.365110     0.645686     0.077778 C
   C100       1.0     0.113864     0.234265     0.700138    -0.122500 C
   C101       1.0     0.223573     0.776833     0.542603    -0.100766 C
   C102       1.0     0.158876     0.838934     0.699109    -0.049881 C
   C103       1.0     0.181655     0.816551     0.645384     0.079355 C
   C104       1.0     0.115796     0.881696     0.699797    -0.121972 C
   C105       1.0     0.553559     0.776305     0.542774    -0.099904 C
   C106       1.0     0.680062     0.841436     0.699509    -0.048575 C
   C107       1.0     0.635024     0.818247     0.645695     0.077579 C
   C108       1.0     0.765930     0.882370     0.700290    -0.121992 C
   C109       1.0     0.777699     0.553460     0.042832    -0.098432 C
   C110       1.0     0.839404     0.679887     0.199399    -0.053863 C
   C111       1.0     0.817074     0.634696     0.145700     0.078578 C
   C112       1.0     0.884559     0.765630     0.200018    -0.124983 C
   C113       1.0     0.776830     0.224340     0.043430    -0.098425 C
   C114       1.0     0.838849     0.158587     0.199402    -0.050110 C
   C115       1.0     0.816629     0.181765     0.145807     0.078890 C
   C116       1.0     0.881569     0.115472     0.200075    -0.126359 C
   C117       1.0     0.446884     0.222253     0.043019    -0.100159 C
   C118       1.0     0.320069     0.160647     0.199614    -0.053625 C
   C119       1.0     0.365185     0.182820     0.145843     0.077314 C
   C120       1.0     0.234219     0.120181     0.200362    -0.120706 C
   C121       1.0     0.364068     0.180182     0.250161     0.215633 C
   C122       1.0     0.190773     0.099040     0.250123    -0.123707 C
   C123       1.0     0.817022     0.180706     0.249945     0.211915 C
   C124       1.0     0.903403     0.093730     0.249781    -0.118410 C
   C125       1.0     0.816166     0.636080     0.249970     0.215266 C
   C126       1.0     0.907150     0.809210     0.249700    -0.118675 C
   C127       1.0     0.636020     0.821533     0.750031     0.209835 C
   C128       1.0     0.809338     0.903594     0.750061    -0.123670 C
   C129       1.0     0.181548     0.817699     0.749677     0.210755 C
   C130       1.0     0.094671     0.904161     0.749487    -0.123818 C
   C131       1.0     0.182521     0.363932     0.749925     0.212605 C
   C132       1.0     0.091479     0.190821     0.749879    -0.122122 C
   N1         1.0     0.448975     0.215592     0.250091    -0.617676 N
   N2         1.0     0.777647     0.226526     0.250045    -0.617048 N
   N3         1.0     0.769183     0.551017     0.250087    -0.616695 N
   N4         1.0     0.551008     0.785244     0.749969    -0.618492 N
   N5         1.0     0.221479     0.772400     0.749868    -0.614095 N
   N6         1.0     0.230362     0.448896     0.749963    -0.618281 N
   O1         1.0     0.483013     0.370589     0.507011    -0.511788 O
   O2         1.0     0.441856     0.409656     0.429519    -0.516259 O
   O3         1.0     0.628792     0.112514     0.506088    -0.503964 O
   O4         1.0     0.590976     0.029462     0.429978    -0.514535 O
   O5         1.0     0.889642     0.519622     0.505669    -0.508795 O
   O6         1.0     0.968527     0.557845     0.427454    -0.516564 O
   O7         1.0     0.519123     0.628618     0.005772    -0.506743 O
   O8         1.0     0.558580     0.589432     0.927510    -0.515071 O
   O9         1.0     0.370009     0.888371     0.006515    -0.505978 O
   O10        1.0     0.409323     0.969302     0.929310    -0.515489 O
   O11        1.0     0.111117     0.480761     0.007061    -0.504197 O
   O12        1.0     0.030849     0.440774     0.929497    -0.516386 O
   O13        1.0     0.370890     0.480728     0.494192    -0.507831 O
   O14        1.0     0.410455     0.441437     0.572362    -0.513471 O
   O15        1.0     0.111388     0.628995     0.493004    -0.509910 O
   O16        1.0     0.030692     0.589668     0.570334    -0.514815 O
   O17        1.0     0.515663     0.886951     0.493878    -0.504249 O
   O18        1.0     0.560800     0.969882     0.570065    -0.514953 O
   O19        1.0     0.629962     0.517897     0.992903    -0.508416 O
   O20        1.0     0.589801     0.557664     0.070601    -0.513977 O
   O21        1.0     0.889061     0.372490     0.995427    -0.508098 O
   O22        1.0     0.969459     0.410951     0.072915    -0.512476 O
   O23        1.0     0.480661     0.109477     0.994559    -0.507236 O
   O24        1.0     0.441259     0.030152     0.072546    -0.513742 O
   O25        1.0     0.518995     0.628487     0.494324    -0.508274 O
   O26        1.0     0.558012     0.589232     0.572766    -0.514278 O
   O27        1.0     0.370511     0.891323     0.493442    -0.509906 O
   O28        1.0     0.411401     0.967700     0.572697    -0.513557 O
   O29        1.0     0.111229     0.481985     0.493148    -0.507616 O
   O30        1.0     0.030298     0.441336     0.570356    -0.516073 O
   O31        1.0     0.482781     0.370202     0.993025    -0.510293 O
   O32        1.0     0.442247     0.409803     0.070574    -0.514937 O
   O33        1.0     0.629122     0.112267     0.993286    -0.506145 O
   O34        1.0     0.589823     0.031045     0.070309    -0.519490 O
   O35        1.0     0.891321     0.520328     0.994008    -0.507192 O
   O36        1.0     0.970081     0.558843     0.072282    -0.514184 O
   O37        1.0     0.629664     0.519253     0.507037    -0.506440 O
   O38        1.0     0.589019     0.557650     0.428936    -0.509177 O
   O39        1.0     0.888732     0.372396     0.504237    -0.508683 O
   O40        1.0     0.969810     0.410293     0.427095    -0.513066 O
   O41        1.0     0.479316     0.108282     0.506451    -0.506956 O
   O42        1.0     0.444371     0.032080     0.427123    -0.511441 O
   O43        1.0     0.371359     0.480682     0.005713    -0.507190 O
   O44        1.0     0.411072     0.441518     0.927548    -0.515195 O
   O45        1.0     0.110806     0.627651     0.004656    -0.510881 O
   O46        1.0     0.031011     0.588568     0.926878    -0.509287 O
   O47        1.0     0.516692     0.887525     0.006772    -0.507427 O
   O48        1.0     0.557569     0.968394     0.929558    -0.517956 O
   Cu1        1.0     0.521885     0.478150     0.543159     0.805044 Cu
   Cu2        1.0     0.521708     0.042920     0.542227     0.804938 Cu
   Cu3        1.0     0.956883     0.479011     0.540721     0.813256 Cu
   Cu4        1.0     0.479021     0.520725     0.041152     0.809280 Cu
   Cu5        1.0     0.477783     0.956013     0.042464     0.806845 Cu
   Cu6        1.0     0.043895     0.521492     0.042590     0.806566 Cu
   Cu7        1.0     0.478518     0.520628     0.458789     0.810107 Cu
   Cu8        1.0     0.043541     0.521545     0.456765     0.805246 Cu
   Cu9        1.0     0.478660     0.956682     0.457843     0.806496 Cu
   Cu10       1.0     0.522324     0.477980     0.956869     0.805273 Cu
   Cu11       1.0     0.957437     0.478815     0.958318     0.808681 Cu
   Cu12       1.0     0.520870     0.042846     0.958347     0.808819 Cu
